
     RDKit          3D

 23 21  0  0  0  0  0  0  0  0999 V2000
   -0.0405   -0.8371    0.4785 C   0  0  0  0  0  0  0  0  0  0  0  0
   -1.2994   -0.3643   -0.2693 C   0  0  0  0  0  0  0  0  0  0  0  0
    1.2544   -0.4905   -0.2722 C   0  0  0  0  0  0  0  0  0  0  0  0
   -2.5930   -0.9185    0.3472 C   0  0  0  0  0  0  0  0  0  0  0  0
    1.5437    1.0089   -0.2901 C   0  0  0  0  0  0  0  0  0  0  0  0
   -2.8978   -0.3173    1.7189 C   0  0  0  0  0  0  0  0  0  0  0  0
    1.2082   -0.8717   -1.3152 H   0  0  0  0  0  0  0  0  0  0  0  0
    2.1026   -0.9996    0.2337 H   0  0  0  0  0  0  0  0  0  0  0  0
   -0.0066   -0.3889    1.4946 H   0  0  0  0  0  0  0  0  0  0  0  0
   -0.0822   -1.9420    0.5961 H   0  0  0  0  0  0  0  0  0  0  0  0
   -1.3447    0.7458   -0.2808 H   0  0  0  0  0  0  0  0  0  0  0  0
   -1.2467   -0.7127   -1.3240 H   0  0  0  0  0  0  0  0  0  0  0  0
   -2.5344   -2.0256    0.4303 H   0  0  0  0  0  0  0  0  0  0  0  0
   -3.4378   -0.6779   -0.3341 H   0  0  0  0  0  0  0  0  0  0  0  0
    2.7764    1.2201   -0.8461 H   0  0  0  0  0  0  0  0  0  0  0  0
    0.7902    1.5477   -0.9011 H   0  0  0  0  0  0  0  0  0  0  0  0
    1.5461    1.4177    0.7427 H   0  0  0  0  0  0  0  0  0  0  0  0
   -3.8944   -0.6670    2.0616 H   0  0  0  0  0  0  0  0  0  0  0  0
   -2.9129    0.7919    1.6628 H   0  0  0  0  0  0  0  0  0  0  0  0
   -2.1431   -0.6401    2.4656 H   0  0  0  0  0  0  0  0  0  0  0  0
    4.2253    1.9409   -2.5101 O   0  0  0  0  0  0  0  0  0  0  0  0
    3.7915    1.4384   -1.3738 O   0  0  0  0  0  1  0  0  0  0  0  0
    5.1953    1.7420   -2.5151 H   0  0  0  0  0  0  0  0  0  0  0  0
  1  2  1  0
  1 10  1  0
  1  9  1  0
  1  3  1  0
  2  4  1  0
  2 11  1  0
  2 12  1  0
  3  7  1  0
  3  5  1  0
  3  8  1  0
  4  6  1  0
  4 13  1  0
  4 14  1  0
  5 17  1  0
  5 15  1  0
  5 16  1  0
  6 18  1  0
  6 19  1  0
  6 20  1  0
 21 23  1  0
 21 22  1  0
M  RAD  1  22   2
M  END
