
     RDKit          3D

 11  9  0  0  0  0  0  0  0  0999 V2000
    0.7593   -0.0130    0.0180 C   0  0  0  0  0  0  0  0  0  0  0  0
   -0.7593    0.0130   -0.0180 C   0  0  0  0  0  0  0  0  0  0  0  0
    1.1301   -0.9610   -0.4256 H   0  0  0  0  0  0  0  0  0  0  0  0
    1.1643    0.8429   -0.5620 H   0  0  0  0  0  0  0  0  0  0  0  0
    1.1122    0.0597    1.0683 H   0  0  0  0  0  0  0  0  0  0  0  0
   -1.1301    0.9610    0.4256 H   0  0  0  0  0  0  0  0  0  0  0  0
   -1.1122   -0.0597   -1.0683 H   0  0  0  0  0  0  0  0  0  0  0  0
   -1.1643   -0.8429    0.5620 H   0  0  0  0  0  0  0  0  0  0  0  0
   -0.1596    0.4510    0.0000 O   0  0  0  0  0  0  0  0  0  0  0  0
    0.9959   -0.1790    0.0000 O   0  0  0  0  0  1  0  0  0  0  0  0
   -0.8363   -0.2720    0.0000 H   0  0  0  0  0  0  0  0  0  0  0  0
  1  2  1  0
  1  5  1  0
  1  4  1  0
  1  3  1  0
  2  8  1  0
  2  7  1  0
  2  6  1  0
  9 10  1  0
  9 11  1  0
M  RAD  1  10   2
M  END
