
     RDKit          3D

 23 21  0  0  0  0  0  0  0  0999 V2000
   -0.0310    0.0785   -0.2919 C   0  0  0  0  0  0  0  0  0  0  0  0
    0.7902   -0.0153    0.9995 C   0  0  0  0  0  0  0  0  0  0  0  0
    0.4260   -0.9704   -1.3112 C   0  0  0  0  0  0  0  0  0  0  0  0
    0.3332    1.0339    2.0194 C   0  0  0  0  0  0  0  0  0  0  0  0
   -0.3917   -0.8785   -2.5945 C   0  0  0  0  0  0  0  0  0  0  0  0
    1.1484    0.9437    3.3062 C   0  0  0  0  0  0  0  0  0  0  0  0
    1.4996   -0.8158   -1.5554 H   0  0  0  0  0  0  0  0  0  0  0  0
    0.3033   -1.9884   -0.8819 H   0  0  0  0  0  0  0  0  0  0  0  0
   -1.1064   -0.0813   -0.0562 H   0  0  0  0  0  0  0  0  0  0  0  0
    0.0879    1.0940   -0.7304 H   0  0  0  0  0  0  0  0  0  0  0  0
    0.6714   -1.0308    1.4382 H   0  0  0  0  0  0  0  0  0  0  0  0
    1.8657    0.1447    0.7641 H   0  0  0  0  0  0  0  0  0  0  0  0
   -0.7405    0.8779    2.2625 H   0  0  0  0  0  0  0  0  0  0  0  0
    0.4526    2.0522    1.5891 H   0  0  0  0  0  0  0  0  0  0  0  0
   -1.7168   -1.0859   -2.3215 H   0  0  0  0  0  0  0  0  0  0  0  0
   -0.2645    0.1206   -3.0634 H   0  0  0  0  0  0  0  0  0  0  0  0
   -0.0492   -1.6544   -3.3112 H   0  0  0  0  0  0  0  0  0  0  0  0
    0.7958    1.7137    4.0243 H   0  0  0  0  0  0  0  0  0  0  0  0
    1.0261   -0.0579    3.7710 H   0  0  0  0  0  0  0  0  0  0  0  0
    2.2243    1.1214    3.0947 H   0  0  0  0  0  0  0  0  0  0  0  0
   -2.1473   -0.1968   -2.7610 O   0  0  0  0  0  0  0  0  0  0  0  0
   -2.8448   -1.0746   -2.0719 O   0  0  0  0  0  1  0  0  0  0  0  0
   -2.3321    0.6695   -2.3184 H   0  0  0  0  0  0  0  0  0  0  0  0
  1  2  1  0
  1 10  1  0
  1  9  1  0
  1  3  1  0
  2  4  1  0
  2 12  1  0
  2 11  1  0
  3  8  1  0
  3  7  1  0
  3  5  1  0
  4  6  1  0
  4 13  1  0
  4 14  1  0
  5 17  1  0
  5 16  1  0
  5 15  1  0
  6 19  1  0
  6 20  1  0
  6 18  1  0
 21 22  1  0
 21 23  1  0
M  RAD  1  22   2
M  END
