
     RDKit          3D

 23 21  0  0  0  0  0  0  0  0999 V2000
    0.0409   -0.1743    1.3112 C   0  0  0  0  0  0  0  0  0  0  0  0
   -0.4190   -0.8342    0.0203 C   0  0  0  0  0  0  0  0  0  0  0  0
    0.2748    1.3026    1.0161 C   0  0  0  0  0  0  0  0  0  0  0  0
   -1.0485   -2.1818    0.2943 C   0  0  0  0  0  0  0  0  0  0  0  0
    1.0787    1.4311   -0.2175 C   0  0  0  0  0  0  0  0  0  0  0  0
   -0.3674   -3.2231   -0.5813 C   0  0  0  0  0  0  0  0  0  0  0  0
    0.7985    1.7804    1.8826 H   0  0  0  0  0  0  0  0  0  0  0  0
   -0.7279    1.7680    0.9837 H   0  0  0  0  0  0  0  0  0  0  0  0
   -0.7369   -0.3310    2.0765 H   0  0  0  0  0  0  0  0  0  0  0  0
    1.0179   -0.6030    1.5920 H   0  0  0  0  0  0  0  0  0  0  0  0
   -1.1617   -0.1809   -0.4733 H   0  0  0  0  0  0  0  0  0  0  0  0
    0.4277   -0.9342   -0.6980 H   0  0  0  0  0  0  0  0  0  0  0  0
   -0.9303   -2.4569    1.3599 H   0  0  0  0  0  0  0  0  0  0  0  0
   -2.1372   -2.1851    0.0403 H   0  0  0  0  0  0  0  0  0  0  0  0
    0.2827    2.2309   -0.9762 H   0  0  0  0  0  0  0  0  0  0  0  0
    1.1129    0.5756   -0.8857 H   0  0  0  0  0  0  0  0  0  0  0  0
    1.9514    2.0763   -0.1832 H   0  0  0  0  0  0  0  0  0  0  0  0
    0.6201   -3.5297   -0.1578 H   0  0  0  0  0  0  0  0  0  0  0  0
   -0.1619   -2.8004   -1.5972 H   0  0  0  0  0  0  0  0  0  0  0  0
   -1.0364   -4.0968   -0.6995 H   0  0  0  0  0  0  0  0  0  0  0  0
    0.1497    4.4553   -1.5076 O   0  0  0  0  0  0  0  0  0  0  0  0
    0.0778    3.1567   -1.6562 O   0  0  0  0  0  1  0  0  0  0  0  0
    0.8939    4.7545   -0.9436 H   0  0  0  0  0  0  0  0  0  0  0  0
  1  9  1  0
  1 10  1  0
  1  3  1  0
  1  2  1  0
  2 12  1  0
  2 11  1  0
  2  4  1  0
  3  5  1  0
  3  7  1  0
  3  8  1  0
  4 13  1  0
  4 14  1  0
  4  6  1  0
  5 16  1  0
  5 17  1  0
  5 15  1  0
  6 20  1  0
  6 18  1  0
  6 19  1  0
 21 22  1  0
 21 23  1  0
M  RAD  1  22   2
M  END
