
     RDKit          3D

 23 21  0  0  0  0  0  0  0  0999 V2000
   -0.5546   -0.6413    0.9063 C   0  0  0  0  0  0  0  0  0  0  0  0
   -1.1950   -1.5328   -0.1258 C   0  0  0  0  0  0  0  0  0  0  0  0
   -0.3508    0.7742    0.4055 C   0  0  0  0  0  0  0  0  0  0  0  0
   -0.2929   -1.8003   -1.2993 C   0  0  0  0  0  0  0  0  0  0  0  0
    1.0688    1.0525    0.1041 C   0  0  0  0  0  0  0  0  0  0  0  0
   -0.6742   -0.8962   -2.4516 C   0  0  0  0  0  0  0  0  0  0  0  0
   -0.9493    0.9575   -0.5226 H   0  0  0  0  0  0  0  0  0  0  0  0
   -0.8079    1.4467    1.1742 H   0  0  0  0  0  0  0  0  0  0  0  0
    0.4381   -1.0359    1.2192 H   0  0  0  0  0  0  0  0  0  0  0  0
   -1.1924   -0.6803    1.8147 H   0  0  0  0  0  0  0  0  0  0  0  0
   -1.4918   -2.4696    0.3986 H   0  0  0  0  0  0  0  0  0  0  0  0
   -2.1559   -1.0416   -0.4200 H   0  0  0  0  0  0  0  0  0  0  0  0
    0.7761   -1.6781   -1.0724 H   0  0  0  0  0  0  0  0  0  0  0  0
   -0.4708   -2.8600   -1.6117 H   0  0  0  0  0  0  0  0  0  0  0  0
    1.3924    1.9200    1.0993 H   0  0  0  0  0  0  0  0  0  0  0  0
    1.2847    1.7032   -0.7387 H   0  0  0  0  0  0  0  0  0  0  0  0
    1.7931    0.2777    0.3377 H   0  0  0  0  0  0  0  0  0  0  0  0
   -0.7119   -1.4933   -3.3944 H   0  0  0  0  0  0  0  0  0  0  0  0
    0.0893   -0.0964   -2.6167 H   0  0  0  0  0  0  0  0  0  0  0  0
   -1.6636   -0.4420   -2.2334 H   0  0  0  0  0  0  0  0  0  0  0  0
    2.0627    3.2666    2.9610 O   0  0  0  0  0  0  0  0  0  0  0  0
    1.7060    2.2786    2.1601 O   0  0  0  0  0  1  0  0  0  0  0  0
    1.9000    2.9907    3.9060 H   0  0  0  0  0  0  0  0  0  0  0  0
  1  9  1  0
  1 10  1  0
  1  3  1  0
  1  2  1  0
  2 12  1  0
  2 11  1  0
  2  4  1  0
  3  5  1  0
  3  7  1  0
  3  8  1  0
  4 13  1  0
  4 14  1  0
  4  6  1  0
  5 16  1  0
  5 17  1  0
  5 15  1  0
  6 20  1  0
  6 18  1  0
  6 19  1  0
 21 23  1  0
 21 22  1  0
M  RAD  1  22   2
M  END
