
     RDKit          3D

 23 21  0  0  0  0  0  0  0  0999 V2000
    1.0938    0.1194    0.1839 C   0  0  0  0  0  0  0  0  0  0  0  0
   -0.1107   -0.7276   -0.2605 C   0  0  0  0  0  0  0  0  0  0  0  0
    0.7865    0.9826    1.4173 C   0  0  0  0  0  0  0  0  0  0  0  0
    0.2127   -1.6220   -1.4678 C   0  0  0  0  0  0  0  0  0  0  0  0
   -0.1701    2.1348    1.1144 C   0  0  0  0  0  0  0  0  0  0  0  0
    1.1003   -2.8122   -1.1035 C   0  0  0  0  0  0  0  0  0  0  0  0
    1.7418    1.4130    1.7889 H   0  0  0  0  0  0  0  0  0  0  0  0
    0.3623    0.3536    2.2294 H   0  0  0  0  0  0  0  0  0  0  0  0
    1.9362   -0.5526    0.4504 H   0  0  0  0  0  0  0  0  0  0  0  0
    1.4319    0.7677   -0.6541 H   0  0  0  0  0  0  0  0  0  0  0  0
   -0.9381   -0.0511   -0.5604 H   0  0  0  0  0  0  0  0  0  0  0  0
   -0.4725   -1.3523    0.5854 H   0  0  0  0  0  0  0  0  0  0  0  0
    0.6994   -1.0244   -2.2690 H   0  0  0  0  0  0  0  0  0  0  0  0
   -0.7425   -2.0165   -1.8776 H   0  0  0  0  0  0  0  0  0  0  0  0
   -1.4376    1.6668    0.8960 H   0  0  0  0  0  0  0  0  0  0  0  0
    0.1753    2.7097    0.2290 H   0  0  0  0  0  0  0  0  0  0  0  0
   -0.2070    2.8209    1.9867 H   0  0  0  0  0  0  0  0  0  0  0  0
    2.1168   -2.4741   -0.8157 H   0  0  0  0  0  0  0  0  0  0  0  0
    1.1973   -3.4819   -1.9839 H   0  0  0  0  0  0  0  0  0  0  0  0
    0.6517   -3.3912   -0.2685 H   0  0  0  0  0  0  0  0  0  0  0  0
   -2.9770    2.5952   -0.0415 O   0  0  0  0  0  0  0  0  0  0  0  0
   -2.4913    1.4692    0.4362 O   0  0  0  0  0  1  0  0  0  0  0  0
   -3.9593    2.4727   -0.0150 H   0  0  0  0  0  0  0  0  0  0  0  0
  1  3  1  0
  1  9  1  0
  1 10  1  0
  1  2  1  0
  2 12  1  0
  2 11  1  0
  2  4  1  0
  3  8  1  0
  3  7  1  0
  3  5  1  0
  4 14  1  0
  4  6  1  0
  4 13  1  0
  5 17  1  0
  5 16  1  0
  5 15  1  0
  6 20  1  0
  6 19  1  0
  6 18  1  0
 21 23  1  0
 21 22  1  0
M  RAD  1  22   2
M  END
