
     RDKit          3D

 23 21  0  0  0  0  0  0  0  0999 V2000
    1.0962    0.0365    0.6435 C   0  0  0  0  0  0  0  0  0  0  0  0
    0.2906   -1.2525    0.6355 C   0  0  0  0  0  0  0  0  0  0  0  0
    0.3762    1.1109    1.4264 C   0  0  0  0  0  0  0  0  0  0  0  0
    0.0096   -1.6790   -0.8003 C   0  0  0  0  0  0  0  0  0  0  0  0
   -0.0307    2.1958    0.5075 C   0  0  0  0  0  0  0  0  0  0  0  0
    1.1661   -2.5572   -1.2494 C   0  0  0  0  0  0  0  0  0  0  0  0
    0.9912    1.5425    2.2372 H   0  0  0  0  0  0  0  0  0  0  0  0
   -0.4962    0.6290    1.9361 H   0  0  0  0  0  0  0  0  0  0  0  0
    2.0858   -0.2133    1.0647 H   0  0  0  0  0  0  0  0  0  0  0  0
    1.2534    0.3635   -0.4139 H   0  0  0  0  0  0  0  0  0  0  0  0
   -0.6863   -1.0834    1.1512 H   0  0  0  0  0  0  0  0  0  0  0  0
    0.8063   -2.0649    1.2052 H   0  0  0  0  0  0  0  0  0  0  0  0
   -0.0736   -0.7697   -1.4423 H   0  0  0  0  0  0  0  0  0  0  0  0
   -0.9384   -2.2556   -0.8810 H   0  0  0  0  0  0  0  0  0  0  0  0
   -1.3058    1.8303    0.2097 H   0  0  0  0  0  0  0  0  0  0  0  0
    0.3716    2.1764   -0.5005 H   0  0  0  0  0  0  0  0  0  0  0  0
   -0.2497    3.1658    0.9434 H   0  0  0  0  0  0  0  0  0  0  0  0
    1.6717   -2.1215   -2.1460 H   0  0  0  0  0  0  0  0  0  0  0  0
    0.7997   -3.5621   -1.5124 H   0  0  0  0  0  0  0  0  0  0  0  0
    1.9325   -2.6464   -0.4667 H   0  0  0  0  0  0  0  0  0  0  0  0
   -3.0842    2.7932   -0.6874 O   0  0  0  0  0  0  0  0  0  0  0  0
   -2.2860    1.7761   -0.4171 O   0  0  0  0  0  1  0  0  0  0  0  0
   -3.6999    2.5856   -1.4432 H   0  0  0  0  0  0  0  0  0  0  0  0
  1  3  1  0
  1  9  1  0
  1 10  1  0
  1  2  1  0
  2 12  1  0
  2 11  1  0
  2  4  1  0
  3  8  1  0
  3  7  1  0
  3  5  1  0
  4 14  1  0
  4  6  1  0
  4 13  1  0
  5 17  1  0
  5 16  1  0
  5 15  1  0
  6 20  1  0
  6 19  1  0
  6 18  1  0
 21 23  1  0
 21 22  1  0
M  RAD  1  22   2
M  END
