
     RDKit          3D

 23 21  0  0  0  0  0  0  0  0999 V2000
   -0.6356    0.2650   -0.7080 C   0  0  0  0  0  0  0  0  0  0  0  0
    0.6620   -0.3856   -0.3452 C   0  0  0  0  0  0  0  0  0  0  0  0
   -1.7234   -0.4845    0.0412 C   0  0  0  0  0  0  0  0  0  0  0  0
    1.7071    0.6230    0.1190 C   0  0  0  0  0  0  0  0  0  0  0  0
   -3.0084    0.2993    0.1050 C   0  0  0  0  0  0  0  0  0  0  0  0
    2.9129   -0.2113    0.5333 C   0  0  0  0  0  0  0  0  0  0  0  0
   -1.8698   -1.4692   -0.4722 H   0  0  0  0  0  0  0  0  0  0  0  0
   -1.3374   -0.6106    1.0801 H   0  0  0  0  0  0  0  0  0  0  0  0
   -0.8187    0.0590   -1.7932 H   0  0  0  0  0  0  0  0  0  0  0  0
   -0.6617    1.3589   -0.4949 H   0  0  0  0  0  0  0  0  0  0  0  0
    1.0961   -0.9832   -1.1858 H   0  0  0  0  0  0  0  0  0  0  0  0
    0.5832   -1.1068    0.5055 H   0  0  0  0  0  0  0  0  0  0  0  0
    1.2959    1.1599    0.9981 H   0  0  0  0  0  0  0  0  0  0  0  0
    1.9515    1.3660   -0.6531 H   0  0  0  0  0  0  0  0  0  0  0  0
   -3.4473    0.2941   -0.9060 H   0  0  0  0  0  0  0  0  0  0  0  0
   -3.6617   -0.2207    0.8510 H   0  0  0  0  0  0  0  0  0  0  0  0
   -2.7423    1.3159    0.4601 H   0  0  0  0  0  0  0  0  0  0  0  0
    2.8746   -1.2360    0.0926 H   0  0  0  0  0  0  0  0  0  0  0  0
    3.8540    0.2361    0.1253 H   0  0  0  0  0  0  0  0  0  0  0  0
    2.9689   -0.2692    1.6472 H   0  0  0  0  0  0  0  0  0  0  0  0
   -0.1450    0.4110   -0.0000 O   0  0  0  0  0  0  0  0  0  0  0  0
    1.0302   -0.1589    0.0000 O   0  0  0  0  0  1  0  0  0  0  0  0
   -0.8852   -0.2522   -0.0000 H   0  0  0  0  0  0  0  0  0  0  0  0
  1  3  1  0
  1  9  1  0
  1  2  1  0
  1 10  1  0
  2 12  1  0
  2  4  1  0
  2 11  1  0
  3  8  1  0
  3  5  1  0
  3  7  1  0
  4  6  1  0
  4 14  1  0
  4 13  1  0
  5 17  1  0
  5 16  1  0
  5 15  1  0
  6 19  1  0
  6 18  1  0
  6 20  1  0
 21 22  1  0
 21 23  1  0
M  RAD  1  22   2
M  END
