
     RDKit          3D

 52 51  0  0  0  0  0  0  0  0999 V2000
   -0.6542   -2.4669   -0.3928 C   0  0  0  0  0  0  0  0  0  0  0  0
   -2.0312   -2.7085    0.2500 C   0  0  0  0  0  0  0  0  0  0  0  0
   -2.4145   -1.7212    1.3713 C   0  0  0  0  0  0  0  0  0  0  0  0
   -2.3495   -0.2322    0.9856 C   0  0  0  0  0  0  0  0  0  0  0  0
   -3.3038    0.1314   -0.1657 C   0  0  0  0  0  0  0  0  0  0  0  0
   -3.3625    1.6534   -0.4202 C   0  0  0  0  0  0  0  0  0  0  0  0
   -2.5308    2.1162   -1.6291 C   0  0  0  0  0  0  0  0  0  0  0  0
   -1.0175    1.9648   -1.4071 C   0  0  0  0  0  0  0  0  0  0  0  0
    0.5019   -2.5587    0.6132 C   0  0  0  0  0  0  0  0  0  0  0  0
   -0.1909    2.5581   -2.5580 C   0  0  0  0  0  0  0  0  0  0  0  0
    1.8558   -2.4340   -0.0963 C   0  0  0  0  0  0  0  0  0  0  0  0
   -0.1412    4.0845   -2.5214 C   0  0  0  0  0  0  0  0  0  0  0  0
    2.9900   -2.4650    0.8955 C   0  0  0  0  0  0  0  0  0  0  0  0
    3.3144   -3.6590    1.5627 C   0  0  0  0  0  0  0  0  0  0  0  0
    3.7408   -1.3059    1.1574 C   0  0  0  0  0  0  0  0  0  0  0  0
    4.3680   -3.6895    2.4815 C   0  0  0  0  0  0  0  0  0  0  0  0
    5.1065   -2.5315    2.7392 C   0  0  0  0  0  0  0  0  0  0  0  0
    4.7935   -1.3412    2.0774 C   0  0  0  0  0  0  0  0  0  0  0  0
    0.4474   -3.5324    1.1473 H   0  0  0  0  0  0  0  0  0  0  0  0
    0.4161   -1.7390    1.3584 H   0  0  0  0  0  0  0  0  0  0  0  0
   -0.5077   -3.2402   -1.1784 H   0  0  0  0  0  0  0  0  0  0  0  0
   -0.6386   -1.4821   -0.9029 H   0  0  0  0  0  0  0  0  0  0  0  0
   -2.8060   -2.6793   -0.5453 H   0  0  0  0  0  0  0  0  0  0  0  0
   -2.0526   -3.7378    0.6697 H   0  0  0  0  0  0  0  0  0  0  0  0
   -1.7560   -1.8911    2.2497 H   0  0  0  0  0  0  0  0  0  0  0  0
   -3.4478   -1.9585    1.7063 H   0  0  0  0  0  0  0  0  0  0  0  0
   -1.3071    0.0513    0.7394 H   0  0  0  0  0  0  0  0  0  0  0  0
   -2.6360    0.3550    1.8854 H   0  0  0  0  0  0  0  0  0  0  0  0
   -3.0106   -0.4021   -1.0947 H   0  0  0  0  0  0  0  0  0  0  0  0
   -4.3242   -0.2184    0.1057 H   0  0  0  0  0  0  0  0  0  0  0  0
   -3.0656    2.2288    0.4841 H   0  0  0  0  0  0  0  0  0  0  0  0
   -4.4207    1.9256   -0.6277 H   0  0  0  0  0  0  0  0  0  0  0  0
   -2.8372    1.5480   -2.5347 H   0  0  0  0  0  0  0  0  0  0  0  0
   -2.7734    3.1845   -1.8080 H   0  0  0  0  0  0  0  0  0  0  0  0
   -0.7191    2.4339   -0.4441 H   0  0  0  0  0  0  0  0  0  0  0  0
   -0.7746    0.8844   -1.3512 H   0  0  0  0  0  0  0  0  0  0  0  0
    0.8507    2.1791   -2.4732 H   0  0  0  0  0  0  0  0  0  0  0  0
   -0.5936    2.2188   -3.5371 H   0  0  0  0  0  0  0  0  0  0  0  0
    1.8756   -1.4828   -0.6733 H   0  0  0  0  0  0  0  0  0  0  0  0
    1.9838   -3.2664   -0.8223 H   0  0  0  0  0  0  0  0  0  0  0  0
    0.2842    4.4945   -1.3618 H   0  0  0  0  0  0  0  0  0  0  0  0
   -1.1411    4.5196   -2.7241 H   0  0  0  0  0  0  0  0  0  0  0  0
    0.5584    4.4492   -3.3027 H   0  0  0  0  0  0  0  0  0  0  0  0
    2.7536   -4.5649    1.3685 H   0  0  0  0  0  0  0  0  0  0  0  0
    4.6128   -4.6115    2.9928 H   0  0  0  0  0  0  0  0  0  0  0  0
    5.9217   -2.5568    3.4507 H   0  0  0  0  0  0  0  0  0  0  0  0
    5.3667   -0.4451    2.2774 H   0  0  0  0  0  0  0  0  0  0  0  0
    3.5096   -0.3748    0.6551 H   0  0  0  0  0  0  0  0  0  0  0  0
    0.3795    5.3307   -0.2865 C   0  0  0  0  0  3  0  0  0  0  0  0
   -0.3684    6.0048   -0.7523 H   0  0  0  0  0  0  0  0  0  0  0  0
    1.3936    5.7642   -0.4068 H   0  0  0  0  0  0  0  0  0  0  0  0
    0.1521    5.2159    0.7933 H   0  0  0  0  0  0  0  0  0  0  0  0
  1  9  1  0
  1 22  1  0
  1  2  1  0
  1 21  1  0
  2 24  1  0
  2 23  1  0
  2  3  1  0
  3  4  1  0
  3 26  1  0
  3 25  1  0
  4 28  1  0
  4  5  1  0
  4 27  1  0
  5 29  1  0
  5 30  1  0
  5  6  1  0
  6  7  1  0
  6 31  1  0
  6 32  1  0
  7  8  1  0
  7 33  1  0
  7 34  1  0
  8 36  1  0
  8 10  1  0
  8 35  1  0
  9 11  1  0
  9 20  1  0
  9 19  1  0
 10 38  1  0
 10 12  1  0
 10 37  1  0
 11 39  1  0
 11 40  1  0
 11 13  1  0
 12 41  1  0
 12 42  1  0
 12 43  1  0
 13 14  2  0
 13 15  1  0
 14 44  1  0
 14 16  1  0
 15 48  1  0
 15 18  2  0
 16 17  2  0
 16 45  1  0
 17 18  1  0
 17 46  1  0
 18 47  1  0
 49 51  1  0
 49 52  1  0
 49 50  1  0
M  RAD  1  49   2
M  END
