
     RDKit          3D

 20 18  0  0  0  0  0  0  0  0999 V2000
    1.2068    0.5726    0.7175 C   0  0  0  0  0  0  0  0  0  0  0  0
    1.2803    0.3665   -0.8056 C   0  0  0  0  0  0  0  0  0  0  0  0
    0.0514   -0.1679    1.4131 C   0  0  0  0  0  0  0  0  0  0  0  0
    0.0471    0.8896   -1.5395 C   0  0  0  0  0  0  0  0  0  0  0  0
    0.1536   -1.6875    1.2864 C   0  0  0  0  0  0  0  0  0  0  0  0
    2.1694    0.9156   -1.1846 H   0  0  0  0  0  0  0  0  0  0  0  0
    1.4310   -0.7058   -1.0491 H   0  0  0  0  0  0  0  0  0  0  0  0
    2.1687    0.2417    1.1664 H   0  0  0  0  0  0  0  0  0  0  0  0
    1.1091    1.6598    0.9292 H   0  0  0  0  0  0  0  0  0  0  0  0
    0.0768    0.0918    2.4936 H   0  0  0  0  0  0  0  0  0  0  0  0
   -0.9275    0.1776    1.0200 H   0  0  0  0  0  0  0  0  0  0  0  0
   -1.0291    0.0757   -1.3098 H   0  0  0  0  0  0  0  0  0  0  0  0
   -0.1901    1.9262   -1.2185 H   0  0  0  0  0  0  0  0  0  0  0  0
    0.2433    0.8944   -2.6325 H   0  0  0  0  0  0  0  0  0  0  0  0
    1.1559   -2.0387    1.6118 H   0  0  0  0  0  0  0  0  0  0  0  0
   -0.0307   -2.0068    0.2398 H   0  0  0  0  0  0  0  0  0  0  0  0
   -0.6146   -2.1638    1.9313 H   0  0  0  0  0  0  0  0  0  0  0  0
   -2.8790    0.2254   -0.5677 O   0  0  0  0  0  0  0  0  0  0  0  0
   -2.1204   -0.2831   -1.5152 O   0  0  0  0  0  1  0  0  0  0  0  0
   -3.3020    1.0168   -0.9865 H   0  0  0  0  0  0  0  0  0  0  0  0
  1  2  1  0
  1  8  1  0
  1  3  1  0
  1  9  1  0
  2  4  1  0
  2  6  1  0
  2  7  1  0
  3 10  1  0
  3  5  1  0
  3 11  1  0
  4 13  1  0
  4 14  1  0
  4 12  1  0
  5 15  1  0
  5 17  1  0
  5 16  1  0
 18 20  1  0
 18 19  1  0
M  RAD  1  19   2
M  END
