
     RDKit          3D

 20 18  0  0  0  0  0  0  0  0999 V2000
    1.4901    0.3713    0.4183 C   0  0  0  0  0  0  0  0  0  0  0  0
    1.0854    0.0153   -0.9905 C   0  0  0  0  0  0  0  0  0  0  0  0
    0.3820    0.1738    1.4147 C   0  0  0  0  0  0  0  0  0  0  0  0
   -0.0516    0.8278   -1.4726 C   0  0  0  0  0  0  0  0  0  0  0  0
    0.0474   -1.2746    1.6425 C   0  0  0  0  0  0  0  0  0  0  0  0
    1.9731    0.2400   -1.6344 H   0  0  0  0  0  0  0  0  0  0  0  0
    0.9414   -1.0863   -1.0652 H   0  0  0  0  0  0  0  0  0  0  0  0
    2.3755   -0.2006    0.7315 H   0  0  0  0  0  0  0  0  0  0  0  0
    1.7633    1.4504    0.4359 H   0  0  0  0  0  0  0  0  0  0  0  0
    0.7036    0.6062    2.3732 H   0  0  0  0  0  0  0  0  0  0  0  0
   -0.5467    0.6840    1.0771 H   0  0  0  0  0  0  0  0  0  0  0  0
   -1.0475   -0.0988   -1.5055 H   0  0  0  0  0  0  0  0  0  0  0  0
   -0.5107    1.5161   -0.7698 H   0  0  0  0  0  0  0  0  0  0  0  0
   -0.0646    1.0988   -2.5238 H   0  0  0  0  0  0  0  0  0  0  0  0
    0.9431   -1.9316    1.6820 H   0  0  0  0  0  0  0  0  0  0  0  0
   -0.5754   -1.6581    0.8081 H   0  0  0  0  0  0  0  0  0  0  0  0
   -0.5079   -1.3809    2.5962 H   0  0  0  0  0  0  0  0  0  0  0  0
   -2.9495    0.1006   -0.6469 O   0  0  0  0  0  0  0  0  0  0  0  0
   -2.1691   -0.4172   -1.5578 O   0  0  0  0  0  1  0  0  0  0  0  0
   -3.2818    0.9638   -1.0130 H   0  0  0  0  0  0  0  0  0  0  0  0
  1  2  1  0
  1  8  1  0
  1  3  1  0
  1  9  1  0
  2  4  1  0
  2  6  1  0
  2  7  1  0
  3 10  1  0
  3  5  1  0
  3 11  1  0
  4 13  1  0
  4 14  1  0
  4 12  1  0
  5 15  1  0
  5 17  1  0
  5 16  1  0
 18 20  1  0
 18 19  1  0
M  RAD  1  19   2
M  END
