
     RDKit          3D

 17 15  0  0  0  0  0  0  0  0999 V2000
   -0.5500    0.4697   -0.0163 C   0  0  0  0  0  0  0  0  0  0  0  0
    0.6206   -0.4806   -0.0331 C   0  0  0  0  0  0  0  0  0  0  0  0
   -1.8730   -0.2393   -0.1438 C   0  0  0  0  0  0  0  0  0  0  0  0
    1.8633    0.2323    0.4598 C   0  0  0  0  0  0  0  0  0  0  0  0
   -0.4723    1.2827   -0.7470 H   0  0  0  0  0  0  0  0  0  0  0  0
   -0.5320    0.9227    1.0084 H   0  0  0  0  0  0  0  0  0  0  0  0
    0.3630   -1.2894    0.6967 H   0  0  0  0  0  0  0  0  0  0  0  0
    0.8003   -0.9536   -1.0090 H   0  0  0  0  0  0  0  0  0  0  0  0
   -2.4378   -0.2799    0.8083 H   0  0  0  0  0  0  0  0  0  0  0  0
   -2.5141    0.3276   -0.8653 H   0  0  0  0  0  0  0  0  0  0  0  0
   -1.7407   -1.2476   -0.6066 H   0  0  0  0  0  0  0  0  0  0  0  0
    1.5750    1.1744    0.9516 H   0  0  0  0  0  0  0  0  0  0  0  0
    2.3722   -0.3841    1.2378 H   0  0  0  0  0  0  0  0  0  0  0  0
    2.5255    0.4650   -0.3961 H   0  0  0  0  0  0  0  0  0  0  0  0
   -0.1490    0.4306   -0.0000 O   0  0  0  0  0  0  0  0  0  0  0  0
    1.0138   -0.1642    0.0000 O   0  0  0  0  0  1  0  0  0  0  0  0
   -0.8649   -0.2665   -0.0000 H   0  0  0  0  0  0  0  0  0  0  0  0
  1  2  1  0
  1  5  1  0
  1  6  1  0
  1  3  1  0
  2  4  1  0
  2  8  1  0
  2  7  1  0
  3 11  1  0
  3  9  1  0
  3 10  1  0
  4 13  1  0
  4 14  1  0
  4 12  1  0
 15 16  1  0
 15 17  1  0
M  RAD  1  16   2
M  END
