
     RDKit          3D

 17 15  0  0  0  0  0  0  0  0999 V2000
    0.0426   -0.6365   -0.4320 C   0  0  0  0  0  0  0  0  0  0  0  0
   -1.2707    0.1066   -0.7179 C   0  0  0  0  0  0  0  0  0  0  0  0
    1.0648    0.2313    0.2987 C   0  0  0  0  0  0  0  0  0  0  0  0
   -2.0866    0.3693    0.5474 C   0  0  0  0  0  0  0  0  0  0  0  0
   -0.1567   -1.5545    0.1620 H   0  0  0  0  0  0  0  0  0  0  0  0
    0.4872   -0.9525   -1.4000 H   0  0  0  0  0  0  0  0  0  0  0  0
   -1.0615    1.0694   -1.2330 H   0  0  0  0  0  0  0  0  0  0  0  0
   -1.8838   -0.5159   -1.4051 H   0  0  0  0  0  0  0  0  0  0  0  0
    2.2468   -0.4524    0.3925 H   0  0  0  0  0  0  0  0  0  0  0  0
    1.2447    1.1748   -0.2593 H   0  0  0  0  0  0  0  0  0  0  0  0
    0.7178    0.4678    1.3259 H   0  0  0  0  0  0  0  0  0  0  0  0
   -1.5614    1.0865    1.2116 H   0  0  0  0  0  0  0  0  0  0  0  0
   -3.0671    0.8098    0.2692 H   0  0  0  0  0  0  0  0  0  0  0  0
   -2.2686   -0.5791    1.0963 H   0  0  0  0  0  0  0  0  0  0  0  0
    2.3375    0.1627    0.2906 O   0  0  0  0  0  0  0  0  0  0  0  0
    3.3920   -0.6228    0.3429 O   0  0  0  0  0  1  0  0  0  0  0  0
    1.8229   -0.1644   -0.4897 H   0  0  0  0  0  0  0  0  0  0  0  0
  1  3  1  0
  1  6  1  0
  1  2  1  0
  1  5  1  0
  2  7  1  0
  2  8  1  0
  2  4  1  0
  3 11  1  0
  3  9  1  0
  3 10  1  0
  4 12  1  0
  4 13  1  0
  4 14  1  0
 15 16  1  0
 15 17  1  0
M  RAD  1  16   2
M  END
