
     RDKit          3D

 18 16  0  0  0  0  0  0  0  0999 V2000
   -1.0225   -0.7159    1.2795 C   0  0  0  0  0  0  0  0  0  0  0  0
   -0.5606   -0.7945   -0.1691 C   0  0  0  0  0  0  0  0  0  0  0  0
   -2.0789    0.3679    1.4341 C   0  0  0  0  0  0  0  0  0  0  0  0
    1.0665   -0.1448   -1.5349 C   0  0  0  0  0  0  0  0  0  0  0  0
    0.4143    0.1575   -0.3757 O   0  0  0  0  0  0  0  0  0  0  0  0
   -0.1309   -0.4409    1.8927 H   0  0  0  0  0  0  0  0  0  0  0  0
   -1.4039   -1.7055    1.5801 H   0  0  0  0  0  0  0  0  0  0  0  0
   -1.4500   -0.6727   -0.8204 H   0  0  0  0  0  0  0  0  0  0  0  0
   -0.1959   -1.8280   -0.3396 H   0  0  0  0  0  0  0  0  0  0  0  0
   -1.6812    1.2610    0.9009 H   0  0  0  0  0  0  0  0  0  0  0  0
   -2.2425    0.5546    2.5057 H   0  0  0  0  0  0  0  0  0  0  0  0
   -2.9828    0.0289    0.8925 H   0  0  0  0  0  0  0  0  0  0  0  0
    1.7927    0.9597   -1.5892 H   0  0  0  0  0  0  0  0  0  0  0  0
    1.8522   -0.8906   -1.4865 H   0  0  0  0  0  0  0  0  0  0  0  0
    0.5085   -0.0551   -2.4603 H   0  0  0  0  0  0  0  0  0  0  0  0
    2.9011    1.5530   -0.2484 O   0  0  0  0  0  0  0  0  0  0  0  0
    2.8453    1.5764   -1.5720 O   0  0  0  0  0  1  0  0  0  0  0  0
    2.3686    0.7890    0.1104 H   0  0  0  0  0  0  0  0  0  0  0  0
  1  2  1  0
  1  6  1  0
  1  7  1  0
  1  3  1  0
  2  8  1  0
  2  9  1  0
  2  5  1  0
  3 10  1  0
  3 11  1  0
  3 12  1  0
  4 15  1  0
  4  5  1  0
  4 13  1  0
  4 14  1  0
 16 17  1  0
 16 18  1  0
M  RAD  1  17   2
M  END
