
     RDKit          3D

 14 12  0  0  0  0  0  0  0  0999 V2000
    0.0453    0.5834   -0.2119 C   0  0  0  0  0  0  0  0  0  0  0  0
    1.2346   -0.3452    0.0136 C   0  0  0  0  0  0  0  0  0  0  0  0
   -1.2692   -0.1018    0.1488 C   0  0  0  0  0  0  0  0  0  0  0  0
    0.0175    0.8912   -1.2794 H   0  0  0  0  0  0  0  0  0  0  0  0
    0.1676    1.4943    0.4130 H   0  0  0  0  0  0  0  0  0  0  0  0
    1.2916   -0.6468    1.0812 H   0  0  0  0  0  0  0  0  0  0  0  0
    1.1408   -1.2530   -0.6199 H   0  0  0  0  0  0  0  0  0  0  0  0
    2.1737    0.1816   -0.2574 H   0  0  0  0  0  0  0  0  0  0  0  0
   -2.1132    0.5983   -0.0258 H   0  0  0  0  0  0  0  0  0  0  0  0
   -1.4197   -1.0041   -0.4816 H   0  0  0  0  0  0  0  0  0  0  0  0
   -1.2689   -0.3979    1.2196 H   0  0  0  0  0  0  0  0  0  0  0  0
   -0.1763    0.4447    0.0000 O   0  0  0  0  0  0  0  0  0  0  0  0
    1.0019   -0.1416    0.0000 O   0  0  0  0  0  1  0  0  0  0  0  0
   -0.8255   -0.3031    0.0000 H   0  0  0  0  0  0  0  0  0  0  0  0
  1  2  1  0
  1  3  1  0
  1  4  1  0
  1  5  1  0
  2  6  1  0
  2  7  1  0
  2  8  1  0
  3  9  1  0
  3 10  1  0
  3 11  1  0
 12 13  1  0
 12 14  1  0
M  RAD  1  13   2
M  END
