
     RDKit          3D

  7  5  0  0  0  0  0  0  0  0999 V2000
    0.0072    0.0030   -0.0135 C   0  0  0  0  0  0  0  0  0  0  0  0
   -0.1017   -0.1563    1.0833 H   0  0  0  0  0  0  0  0  0  0  0  0
   -0.4842    0.9455   -0.2805 H   0  0  0  0  0  0  0  0  0  0  0  0
   -0.5094   -0.8230   -0.5399 H   0  0  0  0  0  0  0  0  0  0  0  0
    1.0881    0.0307   -0.2493 H   0  0  0  0  0  0  0  0  0  0  0  0
    0.4901    0.0000    0.0000 O   0  0  0  0  0  1  0  0  0  0  0  0
   -0.4901    0.0000    0.0000 H   0  0  0  0  0  0  0  0  0  0  0  0
  1  2  1  0
  1  5  1  0
  1  4  1  0
  1  3  1  0
  6  7  1  0
M  RAD  1   6   2
M  END
