
     RDKit          3D

 15 13  0  0  0  0  0  0  0  0999 V2000
   -0.3221    0.0756   -0.4001 C   0  0  0  0  0  0  0  0  0  0  0  0
   -1.7995    0.0179   -0.0427 C   0  0  0  0  0  0  0  0  0  0  0  0
    1.8153   -0.0905    0.4359 C   0  0  0  0  0  0  0  0  0  0  0  0
    0.4453   -0.1435    0.7641 O   0  0  0  0  0  0  0  0  0  0  0  0
   -0.1178   -0.7099   -1.1634 H   0  0  0  0  0  0  0  0  0  0  0  0
   -0.1079    1.0796   -0.8331 H   0  0  0  0  0  0  0  0  0  0  0  0
   -2.0402    0.8014    0.7069 H   0  0  0  0  0  0  0  0  0  0  0  0
   -2.0501   -0.9789    0.3784 H   0  0  0  0  0  0  0  0  0  0  0  0
   -2.4132    0.1891   -0.9523 H   0  0  0  0  0  0  0  0  0  0  0  0
    2.0968    0.9107    0.0398 H   0  0  0  0  0  0  0  0  0  0  0  0
    2.4066   -0.2640    1.3584 H   0  0  0  0  0  0  0  0  0  0  0  0
    2.0868   -0.8873   -0.2920 H   0  0  0  0  0  0  0  0  0  0  0  0
   -0.2173    0.4261    0.0000 O   0  0  0  0  0  0  0  0  0  0  0  0
    1.0107   -0.0468    0.0000 O   0  0  0  0  0  1  0  0  0  0  0  0
   -0.7934   -0.3793    0.0000 H   0  0  0  0  0  0  0  0  0  0  0  0
  1  6  1  0
  1  5  1  0
  1  4  1  0
  1  2  1  0
  2  7  1  0
  2  9  1  0
  2  8  1  0
  3 11  1  0
  3  4  1  0
  3 10  1  0
  3 12  1  0
 13 14  1  0
 13 15  1  0
M  RAD  1  14   2
M  END
