
     RDKit          3D

 15 13  0  0  0  0  0  0  0  0999 V2000
   -0.3298    0.3295   -0.4678 C   0  0  0  0  0  0  0  0  0  0  0  0
   -1.7145   -0.1007    0.0065 C   0  0  0  0  0  0  0  0  0  0  0  0
    1.7619   -0.1625    0.4013 C   0  0  0  0  0  0  0  0  0  0  0  0
    0.4662    0.2714    0.6788 O   0  0  0  0  0  0  0  0  0  0  0  0
    0.0022   -0.3507   -1.2628 H   0  0  0  0  0  0  0  0  0  0  0  0
   -0.3775    1.3821   -0.7844 H   0  0  0  0  0  0  0  0  0  0  0  0
   -2.2382    0.7308    0.5014 H   0  0  0  0  0  0  0  0  0  0  0  0
   -1.5925   -0.8932    0.7729 H   0  0  0  0  0  0  0  0  0  0  0  0
   -2.2613   -0.4302   -0.8885 H   0  0  0  0  0  0  0  0  0  0  0  0
    2.3720    0.7520    0.2825 H   0  0  0  0  0  0  0  0  0  0  0  0
    2.1022   -0.7568    1.2799 H   0  0  0  0  0  0  0  0  0  0  0  0
    1.8093   -0.7718   -0.5197 H   0  0  0  0  0  0  0  0  0  0  0  0
   -0.1457    0.4150   -0.0000 O   0  0  0  0  0  0  0  0  0  0  0  0
    1.0270   -0.1600    0.0000 O   0  0  0  0  0  1  0  0  0  0  0  0
   -0.8813   -0.2550   -0.0000 H   0  0  0  0  0  0  0  0  0  0  0  0
  1  6  1  0
  1  5  1  0
  1  4  1  0
  1  2  1  0
  2  7  1  0
  2  9  1  0
  2  8  1  0
  3 11  1  0
  3  4  1  0
  3 10  1  0
  3 12  1  0
 13 14  1  0
 13 15  1  0
M  RAD  1  14   2
M  END
