
     RDKit          3D

 21 19  0  0  0  0  0  0  0  0999 V2000
   -0.4760    0.2098    0.1338 C   0  0  0  0  0  0  0  0  0  0  0  0
    0.7488   -0.1053   -0.7699 C   0  0  0  0  0  0  0  0  0  0  0  0
   -1.7639    0.1412   -0.7107 C   0  0  0  0  0  0  0  0  0  0  0  0
   -0.5861   -0.8090    1.2819 C   0  0  0  0  0  0  0  0  0  0  0  0
    2.0966    0.0460   -0.0593 C   0  0  0  0  0  0  0  0  0  0  0  0
   -0.3567    1.4954    0.6964 O   0  0  0  0  0  0  0  0  0  0  0  0
    0.6697   -1.1411   -1.1676 H   0  0  0  0  0  0  0  0  0  0  0  0
    0.7466    0.5824   -1.6442 H   0  0  0  0  0  0  0  0  0  0  0  0
    2.1936    1.0551    0.3932 H   0  0  0  0  0  0  0  0  0  0  0  0
    2.2181   -0.7277    0.7264 H   0  0  0  0  0  0  0  0  0  0  0  0
    2.9166   -0.0856   -0.7965 H   0  0  0  0  0  0  0  0  0  0  0  0
   -1.7168    0.8616   -1.5555 H   0  0  0  0  0  0  0  0  0  0  0  0
   -2.6488    0.3978   -0.0894 H   0  0  0  0  0  0  0  0  0  0  0  0
   -1.9061   -0.8793   -1.1278 H   0  0  0  0  0  0  0  0  0  0  0  0
   -0.6025   -1.8481    0.8881 H   0  0  0  0  0  0  0  0  0  0  0  0
    0.2654   -0.7046    1.9861 H   0  0  0  0  0  0  0  0  0  0  0  0
   -1.5176   -0.6372    1.8633 H   0  0  0  0  0  0  0  0  0  0  0  0
   -0.2809    2.1487   -0.0482 H   0  0  0  0  0  0  0  0  0  0  0  0
   -0.1815    0.4426    0.0000 O   0  0  0  0  0  0  0  0  0  0  0  0
    1.0034   -0.1299    0.0000 O   0  0  0  0  0  1  0  0  0  0  0  0
   -0.8220   -0.3127    0.0000 H   0  0  0  0  0  0  0  0  0  0  0  0
  1  2  1  0
  1  6  1  0
  1  4  1  0
  1  3  1  0
  2  5  1  0
  2  8  1  0
  2  7  1  0
  3 14  1  0
  3 13  1  0
  3 12  1  0
  4 16  1  0
  4 15  1  0
  4 17  1  0
  5  9  1  0
  5 11  1  0
  5 10  1  0
  6 18  1  0
 19 21  1  0
 19 20  1  0
M  RAD  1  20   2
M  END
