
     RDKit          3D

 10  8  0  0  0  0  0  0  0  0999 V2000
    0.7592    0.0248    0.0051 C   0  0  0  0  0  0  0  0  0  0  0  0
   -0.7592   -0.0248   -0.0051 C   0  0  0  0  0  0  0  0  0  0  0  0
    1.1698   -0.9514   -0.3287 H   0  0  0  0  0  0  0  0  0  0  0  0
    1.1143    0.8225   -0.6809 H   0  0  0  0  0  0  0  0  0  0  0  0
    1.1219    0.2400    1.0322 H   0  0  0  0  0  0  0  0  0  0  0  0
   -1.1219   -0.2400   -1.0322 H   0  0  0  0  0  0  0  0  0  0  0  0
   -1.1698    0.9514    0.3287 H   0  0  0  0  0  0  0  0  0  0  0  0
   -1.1143   -0.8225    0.6809 H   0  0  0  0  0  0  0  0  0  0  0  0
    0.4951    0.0000    0.0000 O   0  0  0  0  0  1  0  0  0  0  0  0
   -0.4951    0.0000    0.0000 H   0  0  0  0  0  0  0  0  0  0  0  0
  1  2  1  0
  1  3  1  0
  1  5  1  0
  1  4  1  0
  2  7  1  0
  2  8  1  0
  2  6  1  0
  9 10  1  0
M  RAD  1   9   2
M  END
