
     RDKit          3D

 10  8  0  0  0  0  0  0  0  0999 V2000
    0.7668    0.0245    0.0000 C   0  0  0  0  0  0  0  0  0  0  0  0
   -0.7522   -0.0292   -0.0077 C   0  0  0  0  0  0  0  0  0  0  0  0
    1.1946   -0.9229   -0.3540 H   0  0  0  0  0  0  0  0  0  0  0  0
    1.1159    0.8397   -0.6350 H   0  0  0  0  0  0  0  0  0  0  0  0
    1.1339    0.1950    1.0205 H   0  0  0  0  0  0  0  0  0  0  0  0
   -1.1467   -0.2732   -1.0018 H   0  0  0  0  0  0  0  0  0  0  0  0
   -1.1737    0.9440    0.2823 H   0  0  0  0  0  0  0  0  0  0  0  0
   -1.1388   -0.7779    0.6957 H   0  0  0  0  0  0  0  0  0  0  0  0
    0.4901    0.0000    0.0000 O   0  0  0  0  0  1  0  0  0  0  0  0
   -0.4901    0.0000    0.0000 H   0  0  0  0  0  0  0  0  0  0  0  0
  1  2  1  0
  1  3  1  0
  1  5  1  0
  1  4  1  0
  2  7  1  0
  2  8  1  0
  2  6  1  0
  9 10  1  0
M  RAD  1   9   2
M  END
