
     RDKit          3D

 26 24  0  0  0  0  0  0  0  0999 V2000
    0.7063   -0.8286   -0.2075 C   0  0  0  0  0  0  0  0  0  0  0  0
    0.3502    0.3801    0.6730 C   0  0  0  0  0  0  0  0  0  0  0  0
    0.7685    1.7206    0.0450 C   0  0  0  0  0  0  0  0  0  0  0  0
    0.5735   -2.1642    0.5397 C   0  0  0  0  0  0  0  0  0  0  0  0
   -0.0224    2.0790   -1.2305 C   0  0  0  0  0  0  0  0  0  0  0  0
   -0.8745   -2.5061    0.8856 C   0  0  0  0  0  0  0  0  0  0  0  0
    0.7699    1.7975   -2.5071 C   0  0  0  0  0  0  0  0  0  0  0  0
    1.1808   -2.1446    1.4702 H   0  0  0  0  0  0  0  0  0  0  0  0
    0.9780   -2.9707   -0.1097 H   0  0  0  0  0  0  0  0  0  0  0  0
    0.0537   -0.8471   -1.1066 H   0  0  0  0  0  0  0  0  0  0  0  0
    1.7600   -0.7322   -0.5491 H   0  0  0  0  0  0  0  0  0  0  0  0
   -0.7427    0.3962    0.8726 H   0  0  0  0  0  0  0  0  0  0  0  0
    0.8713    0.2846    1.6507 H   0  0  0  0  0  0  0  0  0  0  0  0
    0.5774    2.5122    0.8024 H   0  0  0  0  0  0  0  0  0  0  0  0
    1.8648    1.7268   -0.1437 H   0  0  0  0  0  0  0  0  0  0  0  0
   -0.2594    3.1653   -1.2126 H   0  0  0  0  0  0  0  0  0  0  0  0
   -0.9915    1.5353   -1.2670 H   0  0  0  0  0  0  0  0  0  0  0  0
   -1.3503   -1.6609    1.8512 H   0  0  0  0  0  0  0  0  0  0  0  0
   -1.5182   -2.4425   -0.0175 H   0  0  0  0  0  0  0  0  0  0  0  0
   -0.9238   -3.5422    1.2820 H   0  0  0  0  0  0  0  0  0  0  0  0
    0.1566    2.0713   -3.3912 H   0  0  0  0  0  0  0  0  0  0  0  0
    1.0363    0.7242   -2.5836 H   0  0  0  0  0  0  0  0  0  0  0  0
    1.7003    2.4042   -2.5228 H   0  0  0  0  0  0  0  0  0  0  0  0
   -2.6735   -0.4258    2.1440 O   0  0  0  0  0  0  0  0  0  0  0  0
   -1.6589   -0.9957    2.7586 O   0  0  0  0  0  1  0  0  0  0  0  0
   -2.3321    0.4636    1.8738 H   0  0  0  0  0  0  0  0  0  0  0  0
  1 11  1  0
  1  2  1  0
  1 10  1  0
  1  4  1  0
  2 13  1  0
  2  3  1  0
  2 12  1  0
  3 15  1  0
  3 14  1  0
  3  5  1  0
  4  6  1  0
  4  8  1  0
  4  9  1  0
  5  7  1  0
  5 17  1  0
  5 16  1  0
  6 20  1  0
  6 19  1  0
  6 18  1  0
  7 22  1  0
  7 23  1  0
  7 21  1  0
 24 25  1  0
 24 26  1  0
M  RAD  1  25   2
M  END
