
     RDKit          3D

 20 18  0  0  0  0  0  0  0  0999 V2000
    0.8723    0.9193    0.7181 C   0  0  0  0  0  0  0  0  0  0  0  0
    1.6874    0.1562   -0.3382 C   0  0  0  0  0  0  0  0  0  0  0  0
    0.2007    0.0027    1.7617 C   0  0  0  0  0  0  0  0  0  0  0  0
    0.8172   -0.6900   -1.2625 C   0  0  0  0  0  0  0  0  0  0  0  0
   -1.2867   -0.2097    1.4802 C   0  0  0  0  0  0  0  0  0  0  0  0
    2.2346    0.8978   -0.9594 H   0  0  0  0  0  0  0  0  0  0  0  0
    2.4442   -0.4906    0.1568 H   0  0  0  0  0  0  0  0  0  0  0  0
    1.5773    1.5923    1.2536 H   0  0  0  0  0  0  0  0  0  0  0  0
    0.1274    1.5788    0.2203 H   0  0  0  0  0  0  0  0  0  0  0  0
    0.2909    0.4740    2.7649 H   0  0  0  0  0  0  0  0  0  0  0  0
    0.7130   -0.9824    1.8180 H   0  0  0  0  0  0  0  0  0  0  0  0
   -0.1985    0.0661   -1.7822 H   0  0  0  0  0  0  0  0  0  0  0  0
    1.4351   -1.0785   -2.0994 H   0  0  0  0  0  0  0  0  0  0  0  0
    0.3971   -1.5581   -0.7136 H   0  0  0  0  0  0  0  0  0  0  0  0
   -1.4425   -0.6754    0.4863 H   0  0  0  0  0  0  0  0  0  0  0  0
   -1.7182   -0.8790    2.2540 H   0  0  0  0  0  0  0  0  0  0  0  0
   -1.8258    0.7609    1.5142 H   0  0  0  0  0  0  0  0  0  0  0  0
   -2.3167    0.2404   -2.8048 O   0  0  0  0  0  0  0  0  0  0  0  0
   -1.2627    0.4423   -2.0432 O   0  0  0  0  0  1  0  0  0  0  0  0
   -2.7463   -0.5669   -2.4250 H   0  0  0  0  0  0  0  0  0  0  0  0
  1  3  1  0
  1  8  1  0
  1  2  1  0
  1  9  1  0
  2  7  1  0
  2  6  1  0
  2  4  1  0
  3 10  1  0
  3 11  1  0
  3  5  1  0
  4 14  1  0
  4 13  1  0
  4 12  1  0
  5 15  1  0
  5 16  1  0
  5 17  1  0
 18 20  1  0
 18 19  1  0
M  RAD  1  19   2
M  END
